$ Spice netlist generated by v2lvs
$ v2022.3_33.19    Tue Sep 6 12:09:54 PDT 2022
.INCLUDE "core.spi" 
.INCLUDE "umc18_io_lvs.spi" 
*.BUSDELIMITER [ 

.SUBCKT LOD_W2_43 in[1] in[0] pos[0] valid 
*.CONNECT valid in[0]
.ENDS

.SUBCKT LOD_W2_42 in[1] in[0] pos[0] valid 
*.CONNECT pos[0] in[1]
XU2 INV1S $PINS O=n1 I=in[0] 
XU3 OR2B1S $PINS O=valid I1=in[1] B1=n1 
.ENDS

.SUBCKT LOD_W4_21 in[3] in[2] in[1] in[0] pos[1] pos[0] valid 
*.CONNECT pos[1] recursive_case.left_valid
XU2 OR2 $PINS O=valid I1=recursive_case.left_valid 
+ I2=recursive_case.right_valid 
XU3 AN2B1S $PINS O=pos[0] I1=recursive_case.right_pos[0] 
+ B1=recursive_case.left_valid 
Xrecursive_case.LOD_left LOD_W2_43 $PINS in[1]=n2 in[0]=in[2] 
+ valid=recursive_case.left_valid 
Xrecursive_case.LOD_right LOD_W2_42 $PINS in[1]=in[1] in[0]=in[0] 
+ pos[0]=recursive_case.right_pos[0] valid=recursive_case.right_valid 
.ENDS

.SUBCKT LOD_W2_41 in[1] in[0] pos[0] valid 
*.CONNECT pos[0] in[1]
XU2 OR2 $PINS O=valid I1=in[1] I2=in[0] 
.ENDS

.SUBCKT LOD_W2_40 in[1] in[0] pos[0] valid 
*.CONNECT pos[0] in[1]
XU2 OR2 $PINS O=valid I1=in[1] I2=in[0] 
.ENDS

.SUBCKT LOD_W4_20 in[3] in[2] in[1] in[0] pos[1] pos[0] valid 
*.CONNECT pos[1] recursive_case.left_valid
XU1 OR2 $PINS O=valid I1=recursive_case.left_valid 
+ I2=recursive_case.right_valid 
XU2 MUX2 $PINS O=pos[0] S=recursive_case.left_valid 
+ A=recursive_case.right_pos[0] B=recursive_case.left_pos[0] 
Xrecursive_case.LOD_left LOD_W2_41 $PINS in[1]=in[3] in[0]=in[2] 
+ pos[0]=recursive_case.left_pos[0] valid=recursive_case.left_valid 
Xrecursive_case.LOD_right LOD_W2_40 $PINS in[1]=in[1] in[0]=in[0] 
+ pos[0]=recursive_case.right_pos[0] valid=recursive_case.right_valid 
.ENDS

.SUBCKT LOD_W8_10 in[7] in[6] in[5] in[4] in[3] in[2] in[1] in[0] pos[2] pos[1] 
+ pos[0] valid 
*.CONNECT pos[2] recursive_case.left_valid
XU1 OR2 $PINS O=valid I1=recursive_case.left_valid 
+ I2=recursive_case.right_valid 
XU3 MUX2 $PINS O=pos[0] S=recursive_case.left_valid 
+ A=recursive_case.right_pos[0] B=recursive_case.left_pos[0] 
XU4 MUX2 $PINS O=pos[1] S=recursive_case.left_valid 
+ A=recursive_case.right_pos[1] B=recursive_case.left_pos[1] 
Xrecursive_case.LOD_left LOD_W4_21 $PINS in[3]=n2 in[2]=in[6] in[1]=in[5] 
+ in[0]=in[4] pos[1]=recursive_case.left_pos[1] pos[0]=recursive_case.left_pos[0] 
+ valid=recursive_case.left_valid 
Xrecursive_case.LOD_right LOD_W4_20 $PINS in[3]=in[3] in[2]=in[2] in[1]=in[1] 
+ in[0]=in[0] pos[1]=recursive_case.right_pos[1] 
+ pos[0]=recursive_case.right_pos[0] valid=recursive_case.right_valid 
.ENDS

.SUBCKT LOD_W16_5 in[15] in[14] in[13] in[12] in[11] in[10] in[9] in[8] in[7] 
+ in[6] in[5] in[4] in[3] in[2] in[1] in[0] pos[3] pos[2] pos[1] pos[0] valid 
*.CONNECT pos[2] recursive_case.right_pos[2]
*.CONNECT pos[1] recursive_case.right_pos[1]
*.CONNECT pos[0] recursive_case.right_pos[0]
*.CONNECT valid recursive_case.right_valid
Xrecursive_case.LOD_right LOD_W8_10 $PINS in[7]=n14 in[6]=in[6] in[5]=in[5] 
+ in[4]=in[4] in[3]=in[3] in[2]=in[2] in[1]=in[1] in[0]=in[0] 
+ pos[2]=recursive_case.right_pos[2] pos[1]=recursive_case.right_pos[1] 
+ pos[0]=recursive_case.right_pos[0] valid=recursive_case.right_valid 
.ENDS

.SUBCKT LOD_W2_39 in[1] in[0] pos[0] valid 
*.CONNECT pos[0] in[1]
XU2 OR2 $PINS O=valid I1=in[1] I2=in[0] 
.ENDS

.SUBCKT LOD_W2_38 in[1] in[0] pos[0] valid 
*.CONNECT pos[0] in[1]
XU2 OR2 $PINS O=valid I1=in[1] I2=in[0] 
.ENDS

.SUBCKT LOD_W4_19 in[3] in[2] in[1] in[0] pos[1] pos[0] valid 
*.CONNECT pos[1] recursive_case.left_valid
XU1 OR2 $PINS O=valid I1=recursive_case.left_valid 
+ I2=recursive_case.right_valid 
XU2 MUX2 $PINS O=pos[0] S=recursive_case.left_valid 
+ A=recursive_case.right_pos[0] B=recursive_case.left_pos[0] 
Xrecursive_case.LOD_left LOD_W2_39 $PINS in[1]=in[3] in[0]=in[2] 
+ pos[0]=recursive_case.left_pos[0] valid=recursive_case.left_valid 
Xrecursive_case.LOD_right LOD_W2_38 $PINS in[1]=in[1] in[0]=in[0] 
+ pos[0]=recursive_case.right_pos[0] valid=recursive_case.right_valid 
.ENDS

.SUBCKT LOD_W2_37 in[1] in[0] pos[0] valid 
*.CONNECT pos[0] in[1]
XU2 OR2 $PINS O=valid I1=in[1] I2=in[0] 
.ENDS

.SUBCKT LOD_W2_36 in[1] in[0] pos[0] valid 
*.CONNECT pos[0] in[1]
XU2 OR2 $PINS O=valid I1=in[1] I2=in[0] 
.ENDS

.SUBCKT LOD_W4_18 in[3] in[2] in[1] in[0] pos[1] pos[0] valid 
*.CONNECT pos[1] recursive_case.left_valid
XU1 OR2 $PINS O=valid I1=recursive_case.left_valid 
+ I2=recursive_case.right_valid 
XU2 MUX2 $PINS O=pos[0] S=recursive_case.left_valid 
+ A=recursive_case.right_pos[0] B=recursive_case.left_pos[0] 
Xrecursive_case.LOD_left LOD_W2_37 $PINS in[1]=in[3] in[0]=in[2] 
+ pos[0]=recursive_case.left_pos[0] valid=recursive_case.left_valid 
Xrecursive_case.LOD_right LOD_W2_36 $PINS in[1]=in[1] in[0]=in[0] 
+ pos[0]=recursive_case.right_pos[0] valid=recursive_case.right_valid 
.ENDS

.SUBCKT LOD_W8_9 in[7] in[6] in[5] in[4] in[3] in[2] in[1] in[0] pos[2] pos[1] 
+ pos[0] valid 
*.CONNECT pos[2] recursive_case.left_valid
XU1 OR2 $PINS O=valid I1=recursive_case.left_valid 
+ I2=recursive_case.right_valid 
XU2 MUX2 $PINS O=pos[0] S=recursive_case.left_valid 
+ A=recursive_case.right_pos[0] B=recursive_case.left_pos[0] 
XU3 MUX2 $PINS O=pos[1] S=recursive_case.left_valid 
+ A=recursive_case.right_pos[1] B=recursive_case.left_pos[1] 
Xrecursive_case.LOD_left LOD_W4_19 $PINS in[3]=in[7] in[2]=in[6] in[1]=in[5] 
+ in[0]=in[4] pos[1]=recursive_case.left_pos[1] pos[0]=recursive_case.left_pos[0] 
+ valid=recursive_case.left_valid 
Xrecursive_case.LOD_right LOD_W4_18 $PINS in[3]=in[3] in[2]=in[2] in[1]=in[1] 
+ in[0]=in[0] pos[1]=recursive_case.right_pos[1] 
+ pos[0]=recursive_case.right_pos[0] valid=recursive_case.right_valid 
.ENDS

.SUBCKT LOD_W2_35 in[1] in[0] pos[0] valid 
*.CONNECT pos[0] in[1]
XU2 OR2 $PINS O=valid I1=in[1] I2=in[0] 
.ENDS

.SUBCKT LOD_W2_34 in[1] in[0] pos[0] valid 
*.CONNECT pos[0] in[1]
XU2 OR2 $PINS O=valid I1=in[1] I2=in[0] 
.ENDS

.SUBCKT LOD_W4_17 in[3] in[2] in[1] in[0] pos[1] pos[0] valid 
*.CONNECT pos[1] recursive_case.left_valid
XU1 OR2 $PINS O=valid I1=recursive_case.left_valid 
+ I2=recursive_case.right_valid 
XU2 MUX2 $PINS O=pos[0] S=recursive_case.left_valid 
+ A=recursive_case.right_pos[0] B=recursive_case.left_pos[0] 
Xrecursive_case.LOD_left LOD_W2_35 $PINS in[1]=in[3] in[0]=in[2] 
+ pos[0]=recursive_case.left_pos[0] valid=recursive_case.left_valid 
Xrecursive_case.LOD_right LOD_W2_34 $PINS in[1]=in[1] in[0]=in[0] 
+ pos[0]=recursive_case.right_pos[0] valid=recursive_case.right_valid 
.ENDS

.SUBCKT LOD_W2_33 in[1] in[0] pos[0] valid 
*.CONNECT pos[0] in[1]
XU2 OR2 $PINS O=valid I1=in[1] I2=in[0] 
.ENDS

.SUBCKT LOD_W2_32 in[1] in[0] pos[0] valid 
*.CONNECT pos[0] in[1]
XU2 OR2 $PINS O=valid I1=in[1] I2=in[0] 
.ENDS

.SUBCKT LOD_W4_16 in[3] in[2] in[1] in[0] pos[1] pos[0] valid 
*.CONNECT pos[1] recursive_case.left_valid
XU1 OR2 $PINS O=valid I1=recursive_case.left_valid 
+ I2=recursive_case.right_valid 
XU2 MUX2 $PINS O=pos[0] S=recursive_case.left_valid 
+ A=recursive_case.right_pos[0] B=recursive_case.left_pos[0] 
Xrecursive_case.LOD_left LOD_W2_33 $PINS in[1]=in[3] in[0]=in[2] 
+ pos[0]=recursive_case.left_pos[0] valid=recursive_case.left_valid 
Xrecursive_case.LOD_right LOD_W2_32 $PINS in[1]=in[1] in[0]=in[0] 
+ pos[0]=recursive_case.right_pos[0] valid=recursive_case.right_valid 
.ENDS

.SUBCKT LOD_W8_8 in[7] in[6] in[5] in[4] in[3] in[2] in[1] in[0] pos[2] pos[1] 
+ pos[0] valid 
*.CONNECT pos[2] recursive_case.left_valid
XU1 OR2 $PINS O=valid I1=recursive_case.left_valid 
+ I2=recursive_case.right_valid 
XU2 MUX2 $PINS O=pos[0] S=recursive_case.left_valid 
+ A=recursive_case.right_pos[0] B=recursive_case.left_pos[0] 
XU3 MUX2 $PINS O=pos[1] S=recursive_case.left_valid 
+ A=recursive_case.right_pos[1] B=recursive_case.left_pos[1] 
Xrecursive_case.LOD_left LOD_W4_17 $PINS in[3]=in[7] in[2]=in[6] in[1]=in[5] 
+ in[0]=in[4] pos[1]=recursive_case.left_pos[1] pos[0]=recursive_case.left_pos[0] 
+ valid=recursive_case.left_valid 
Xrecursive_case.LOD_right LOD_W4_16 $PINS in[3]=in[3] in[2]=in[2] in[1]=in[1] 
+ in[0]=in[0] pos[1]=recursive_case.right_pos[1] 
+ pos[0]=recursive_case.right_pos[0] valid=recursive_case.right_valid 
.ENDS

.SUBCKT LOD_W16_4 in[15] in[14] in[13] in[12] in[11] in[10] in[9] in[8] in[7] 
+ in[6] in[5] in[4] in[3] in[2] in[1] in[0] pos[3] pos[2] pos[1] pos[0] valid 
*.CONNECT pos[3] recursive_case.left_valid
XU1 OR2 $PINS O=valid I1=recursive_case.left_valid 
+ I2=recursive_case.right_valid 
XU2 MUX2 $PINS O=pos[0] S=recursive_case.left_valid 
+ A=recursive_case.right_pos[0] B=recursive_case.left_pos[0] 
XU3 MUX2 $PINS O=pos[1] S=recursive_case.left_valid 
+ A=recursive_case.right_pos[1] B=recursive_case.left_pos[1] 
XU4 MUX2 $PINS O=pos[2] S=recursive_case.left_valid 
+ A=recursive_case.right_pos[2] B=recursive_case.left_pos[2] 
Xrecursive_case.LOD_left LOD_W8_9 $PINS in[7]=in[15] in[6]=in[14] in[5]=in[13] 
+ in[4]=in[12] in[3]=in[11] in[2]=in[10] in[1]=in[9] in[0]=in[8] 
+ pos[2]=recursive_case.left_pos[2] pos[1]=recursive_case.left_pos[1] 
+ pos[0]=recursive_case.left_pos[0] valid=recursive_case.left_valid 
Xrecursive_case.LOD_right LOD_W8_8 $PINS in[7]=in[7] in[6]=in[6] in[5]=in[5] 
+ in[4]=in[4] in[3]=in[3] in[2]=in[2] in[1]=in[1] in[0]=in[0] 
+ pos[2]=recursive_case.right_pos[2] pos[1]=recursive_case.right_pos[1] 
+ pos[0]=recursive_case.right_pos[0] valid=recursive_case.right_valid 
.ENDS

.SUBCKT LOD_W23 in[22] in[21] in[20] in[19] in[18] in[17] in[16] in[15] in[14] 
+ in[13] in[12] in[11] in[10] in[9] in[8] in[7] in[6] in[5] in[4] in[3] in[2] 
+ in[1] in[0] pos[4] pos[3] pos[2] pos[1] pos[0] valid 
*.CONNECT pos[4] recursive_case.left_valid
XFE_OFC529_mul_pos_4 BUF1 $PINS O=recursive_case.left_valid 
+ I=FE_OFN531_mul_pos_4 
XU3 OR2 $PINS O=valid I1=recursive_case.left_valid 
+ I2=recursive_case.right_valid 
XU4 MUX2 $PINS O=pos[0] S=recursive_case.left_valid 
+ A=recursive_case.right_pos[0] B=recursive_case.left_pos[0] 
XU5 MUX2 $PINS O=pos[1] S=FE_OFN531_mul_pos_4 A=recursive_case.right_pos[1] 
+ B=recursive_case.left_pos[1] 
XU6 MUX2 $PINS O=pos[2] S=FE_OFN531_mul_pos_4 A=recursive_case.right_pos[2] 
+ B=recursive_case.left_pos[2] 
XU7 AN2B1S $PINS O=pos[3] I1=recursive_case.right_pos[3] 
+ B1=recursive_case.left_valid 
Xrecursive_case.LOD_left LOD_W16_5 $PINS in[15]=*Logic0* in[14]=*Logic0* 
+ in[13]=*Logic0* in[12]=*Logic0* in[11]=*Logic0* in[10]=*Logic0* in[9]=*Logic0* 
+ in[8]=*Logic0* in[7]=*Logic0* in[6]=in[22] in[5]=in[21] in[4]=in[20] 
+ in[3]=in[19] in[2]=in[18] in[1]=in[17] in[0]=in[16] 
+ pos[3]=SYNOPSYS_UNCONNECTED__0 pos[2]=recursive_case.left_pos[2] 
+ pos[1]=recursive_case.left_pos[1] pos[0]=recursive_case.left_pos[0] 
+ valid=FE_OFN531_mul_pos_4 
Xrecursive_case.LOD_right LOD_W16_4 $PINS in[15]=in[15] in[14]=in[14] 
+ in[13]=in[13] in[12]=in[12] in[11]=in[11] in[10]=in[10] in[9]=in[9] in[8]=in[8] 
+ in[7]=in[7] in[6]=in[6] in[5]=in[5] in[4]=in[4] in[3]=in[3] in[2]=in[2] 
+ in[1]=in[1] in[0]=in[0] pos[3]=recursive_case.right_pos[3] 
+ pos[2]=recursive_case.right_pos[2] pos[1]=recursive_case.right_pos[1] 
+ pos[0]=recursive_case.right_pos[0] valid=recursive_case.right_valid 
.ENDS

.SUBCKT mult_pipe_5 rst_n A[15] A[14] A[13] A[12] A[11] A[10] A[9] A[8] A[7] 
+ A[6] A[5] A[4] A[3] A[2] A[1] A[0] B[15] B[14] B[13] B[12] B[11] B[10] B[9] 
+ B[8] B[7] B[6] B[5] B[4] B[3] B[2] B[1] B[0] result[31] result[30] result[29] 
+ result[28] result[27] result[26] result[25] result[24] result[23] result[22] 
+ result[21] result[20] result[19] result[18] result[17] result[16] result[15] 
+ result[14] result[13] result[12] result[11] result[10] result[9] result[8] 
+ result[7] result[6] result[5] result[4] result[3] result[2] result[1] 
+ result[0] Iy2_shift_15 Iy2_shift_14 IxIt_shift_7 n1438 n1437 n4486 n4487 
+ FE_OFN114_i_reset_n_i FE_OFN111_i_reset_n_i FE_OFN107_i_reset_n_i 
+ FE_OFN103_i_reset_n_i FE_OFN101_i_reset_n_i FE_OFN99_i_reset_n_i 
+ FE_OFN92_i_reset_n_i FE_OFN90_i_reset_n_i FE_OFN87_i_reset_n_i 
+ FE_OFN85_i_reset_n_i FE_OFN83_i_reset_n_i FE_OFN73_i_reset_n_i 
+ FE_OFN72_i_reset_n_i FE_OFN66_i_reset_n_i FE_OFN64_i_reset_n_i 
+ FE_OFN62_i_reset_n_i FE_OFN50_i_reset_n_i FE_OFN43_i_reset_n_i 
+ FE_OFN42_i_reset_n_i FE_OFN39_i_reset_n_i FE_OFN23_i_reset_n_i 
+ FE_OFN135_IxIt_shift_1 FE_OFN134_IxIt_shift_1 FE_OFN133_IxIt_shift_1 
+ FE_OFN137_IxIt_shift_0 FE_OFN150_IxIt_shift_15 FE_OFN149_IxIt_shift_15 
+ FE_OFN151_IxIt_shift_14 FE_OFN153_IxIt_shift_13 FE_OFN152_IxIt_shift_13 
+ FE_OFN177_n1437 FE_OFN186_n4487 FE_OFN225_IxIt_shift_12 
+ FE_OFN224_IxIt_shift_12 FE_OFN226_IxIt_shift_11 FE_OFN227_IxIt_shift_10 
+ FE_OFN230_IxIt_shift_8 FE_OFN229_IxIt_shift_8 FE_OFN228_IxIt_shift_8 
+ FE_OFN232_IxIt_shift_7 FE_OFN231_IxIt_shift_7 FE_OFN234_IxIt_shift_3 
+ FE_OFN240_FE_DBTN39_n1437 FE_OFN261_IxIt_shift_6 FE_OFN199_i_reset_n_i 
+ FE_OFN1194_FE_DBTN12_Iy2_shift_15 FE_OFN1306_Iy2_shift_9 clk_clone3 
+ clk_clone2 clk_clone1 clk 
XFE_PHC3301_N76 BUF1S $PINS O=FE_PHN3301_N76 I=FE_PHN3202_N76 
XFE_PHC3202_N76 BUF1S $PINS O=FE_PHN3202_N76 I=N76 
XFE_PHC3133_N74 DELB $PINS O=FE_PHN3133_N74 I=N74 
XFE_PHC3130_N75 DELB $PINS O=N75 I=FE_PHN3130_N75 
XFE_PHC3124_N68 DELB $PINS O=FE_PHN3124_N68 I=N68 
XFE_PHC3112_N70 DELB $PINS O=N70 I=FE_PHN3112_N70 
XFE_PHC3109_N73 DELB $PINS O=FE_PHN3109_N73 I=N73 
XFE_PHC3107_N71 DELB $PINS O=N71 I=FE_PHN3107_N71 
XFE_PHC3105_N69 DELB $PINS O=FE_PHN3105_N69 I=N69 
XFE_PHC3102_N72 DELB $PINS O=N72 I=FE_PHN3102_N72 
XFE_OFC2936_Iy2_shift_9 BUF1 $PINS O=FE_OFN4371_n I=FE_OFN2741_Iy2_shift_9 
XFE_OFC2741_Iy2_shift_9 BUF2 $PINS O=FE_OFN2741_Iy2_shift_9 
+ I=FE_OFN1306_Iy2_shift_9 
XFE_OFC2925_n410 BUF1 $PINS O=FE_OFN4360_n I=FE_OFN1512_n410 
XFE_OFC2901_Iy2_shift_8 BUF1 $PINS O=FE_OFN4336_Iy2_shift_8 
+ I=FE_OFN4335_Iy2_shift_8 
XFE_OFC2900_Iy2_shift_8 BUF1 $PINS O=FE_OFN4335_Iy2_shift_8 I=A[8] 
XFE_OFC2859_FE_DBTN136_Iy2_shift_9 BUF1 $PINS 
+ O=FE_OFN4294_FE_DBTN136_Iy2_shift_9 I=FE_OFN4293_FE_DBTN136_Iy2_shift_9 
XFE_OFC2858_FE_DBTN136_Iy2_shift_9 INV1S $PINS 
+ O=FE_OFN4293_FE_DBTN136_Iy2_shift_9 I=FE_OFN4291_FE_DBTN136_Iy2_shift_9 
XFE_OFC2857_FE_DBTN136_Iy2_shift_9 BUF1 $PINS 
+ O=FE_OFN4292_FE_DBTN136_Iy2_shift_9 I=FE_DBTN136_Iy2_shift_9 
XFE_OFC2856_FE_DBTN136_Iy2_shift_9 INV1S $PINS 
+ O=FE_OFN4291_FE_DBTN136_Iy2_shift_9 I=FE_DBTN136_Iy2_shift_9 
XFE_OFC2851_Iy2_shift_11 INV1S $PINS O=FE_OFN4286_n I=FE_OFN4283_n 
XFE_OFC2850_Iy2_shift_11 INV1S $PINS O=FE_OFN4285_n I=FE_OFN4283_n 
XFE_OFC2849_Iy2_shift_11 INV1S $PINS O=FE_OFN4284_n I=FE_OFN4283_n 
XFE_OFC2848_Iy2_shift_11 INV1S $PINS O=FE_OFN4283_n I=FE_OFN1298_Iy2_shift_11 
XFE_OFC2826_FE_OFN1361_IxIt_shift_8 BUF1 $PINS 
+ O=FE_OFN4261_FE_OFN1361_IxIt_shift_8 I=FE_OFN228_IxIt_shift_8 
XFE_OFC2821_FE_OFN1092_Iy2_shift_15 BUF1 $PINS 
+ O=FE_OFN4256_FE_OFN1092_Iy2_shift_15 I=FE_OFN1092_Iy2_shift_15 
XFE_OFC2787_FE_OFN1293_Iy2_shift_11 BUF1 $PINS 
+ O=FE_OFN4222_FE_OFN1293_Iy2_shift_11 I=FE_OFN4221_FE_OFN1293_Iy2_shift_11 
XFE_OFC2786_FE_OFN1293_Iy2_shift_11 BUF1 $PINS 
+ O=FE_OFN4221_FE_OFN1293_Iy2_shift_11 I=FE_OFN1293_Iy2_shift_11 
XFE_OFC2735_FE_OFN1011_FE_DBTN138_Iy2_shift_13 BUF1 $PINS 
+ O=FE_OFN4170_FE_OFN1011_FE_DBTN138_Iy2_shift_13 
+ I=FE_OFN4169_FE_OFN1011_FE_DBTN138_Iy2_shift_13 
XFE_OFC2734_FE_OFN1011_FE_DBTN138_Iy2_shift_13 INV1S $PINS 
+ O=FE_OFN4169_FE_OFN1011_FE_DBTN138_Iy2_shift_13 
+ I=FE_OFN4168_FE_OFN1011_FE_DBTN138_Iy2_shift_13 
XFE_OFC2733_FE_OFN1011_FE_DBTN138_Iy2_shift_13 INV1S $PINS 
+ O=FE_OFN4168_FE_OFN1011_FE_DBTN138_Iy2_shift_13 
+ I=FE_OFN1011_FE_DBTN138_Iy2_shift_13 
XFE_OFC2732_FE_OFN1011_FE_DBTN138_Iy2_shift_13 BUF1 $PINS 
+ O=FE_OFN4167_FE_OFN1011_FE_DBTN138_Iy2_shift_13 
+ I=FE_OFN1011_FE_DBTN138_Iy2_shift_13 
XFE_RC_1_0 XOR2HS $PINS O=n371 I1=FE_OFN230_IxIt_shift_8 
+ I2=FE_OFN4256_FE_OFN1092_Iy2_shift_15 
XFE_RC_0_0 XOR2HS $PINS O=n340 I1=B[11] I2=FE_OFN1092_Iy2_shift_15 
XFE_OFC2615_IxIt_shift_1 INV1S $PINS O=FE_OFN4132_IxIt_shift_1 
+ I=FE_OFN133_IxIt_shift_1 
XFE_OFC2614_IxIt_shift_1 INV1S $PINS O=FE_OFN4131_IxIt_shift_1 
+ I=FE_OFN133_IxIt_shift_1 
XFE_OFC2613_IxIt_shift_1 INV1S $PINS O=FE_OFN4130_IxIt_shift_1 
+ I=FE_OFN133_IxIt_shift_1 
XFE_OFC2607_Iy2_shift_0 BUF1 $PINS O=FE_OFN4128_Iy2_shift_0 I=A[0] 
XFE_OFC2546_Iy2_shift_1 BUF1 $PINS O=FE_OFN4116_Iy2_shift_1 I=A[1] 
XFE_OFC2494_IxIt_shift_5 BUF1 $PINS O=FE_OFN291_FE_DBTN105_IxIt_shift_5 
+ I=FE_DBTN105_IxIt_shift_5 
XFE_OFC2492_IxIt_shift_5 BUF1 $PINS O=FE_DBTN105_IxIt_shift_5 
+ I=FE_OFN290_FE_DBTN105_IxIt_shift_5 
XFE_OFC2490_IxIt_shift_5 INV1S $PINS O=FE_OFN290_FE_DBTN105_IxIt_shift_5 I=B[5] 
XFE_OFC2455_n431 BUF1 $PINS O=FE_OFN1745_n431 I=FE_OFN1535_n431 
XFE_OFC2454_n431 BUF1 $PINS O=FE_OFN1535_n431 I=n431 
XFE_OFC2442_IxIt_shift_15 BUF1 $PINS O=FE_OFN1142_n318 I=FE_RN_7 
XFE_OFC2441_IxIt_shift_15 INV1S $PINS O=n318 I=FE_RN_7 
XFE_OFC2439_IxIt_shift_15 INV1S $PINS O=FE_RN_7 I=FE_OFN150_IxIt_shift_15 
XFE_OFC2438_IxIt_shift_6 BUF1 $PINS O=FE_OFN1738_IxIt_shift_6 
+ I=FE_OFN1737_IxIt_shift_6 
XFE_OFC2437_IxIt_shift_6 BUF1 $PINS O=FE_OFN1737_IxIt_shift_6 
+ I=FE_OFN287_FE_DBTN107_IxIt_shift_6 
XFE_OFC2435_IxIt_shift_6 BUF1 $PINS O=FE_OFN287_FE_DBTN107_IxIt_shift_6 
+ I=FE_OFN286_FE_DBTN107_IxIt_shift_6 
XFE_OFC2432_IxIt_shift_6 INV1S $PINS O=FE_OFN286_FE_DBTN107_IxIt_shift_6 I=B[6] 
XFE_OFC2417_IxIt_shift_11 INV1S $PINS O=FE_OFN1728_IxIt_shift_11 I=n435 
XFE_OFC2416_IxIt_shift_11 INV1S $PINS O=FE_OFN1727_IxIt_shift_11 I=B[11] 
XFE_OFC2412_IxIt_shift_11 INV1S $PINS O=n435 I=B[11] 
XFE_OFC2406_IxIt_shift_12 BUF1 $PINS O=FE_OFN1513_n433 
+ I=FE_OFN225_IxIt_shift_12 
XFE_OFC2403_IxIt_shift_12 BUF1 $PINS O=FE_OFN1348_IxIt_shift_12 I=B[12] 
XFE_OFC2379_Iy2_shift_14 BUF1 $PINS O=FE_RN_5 
+ I=FE_OFN1182_FE_DBTN27_Iy2_shift_14 
XFE_OFC2376_Iy2_shift_14 BUF1 $PINS O=FE_OFN1182_FE_DBTN27_Iy2_shift_14 
+ I=Iy2_shift_14 
XFE_OFC2374_Iy2_shift_14 INV1S $PINS O=FE_OFN1095_Iy2_shift_14 I=Iy2_shift_14 
XFE_OFC2360_IxIt_shift_13 INV1S $PINS O=n262 I=FE_OFN987_IxIt_shift_13 
XFE_OFC2358_IxIt_shift_13 BUF1 $PINS O=FE_OFN987_IxIt_shift_13 
+ I=FE_OFN152_IxIt_shift_13 
XFE_OFC2192_FE_DBTN131_Iy2_shift_4 BUF1 $PINS 
+ O=FE_OFN280_FE_DBTN131_Iy2_shift_4 I=FE_DBTN131_Iy2_shift_4 
XFE_OFC2170_n348 BUF1 $PINS O=FE_OFN1657_n348 I=FE_DBTN90_n348 
XFE_OFC2169_n348 INV1S $PINS O=FE_OFN1481_FE_DBTN90_n348 I=FE_DBTN90_n348 
XFE_OFC2168_n348 INV1S $PINS O=FE_DBTN90_n348 I=n348 
XFE_OFC2092_Iy2_shift_15 BUF1 $PINS O=FE_OFN1093_Iy2_shift_15 
+ I=FE_OFN4256_FE_OFN1092_Iy2_shift_15 
XFE_OFC2089_Iy2_shift_15 BUF1 $PINS O=FE_OFN1092_Iy2_shift_15 I=A[15] 
XFE_OFC2047_n4486 BUF1 $PINS O=FE_OFN1633_n4486 I=FE_OFN1244_n4486 
XFE_OFC2046_n4486 BUF1 $PINS O=FE_OFN1247_n4486 I=n4486 
XFE_OFC2044_n4486 BUF1 $PINS O=FE_OFN1244_n4486 I=A[5] 
XFE_OFC2029_IxIt_shift_9 BUF1 $PINS O=FE_OFN1461_FE_DBTN111_IxIt_shift_9 
+ I=FE_DBTN111_IxIt_shift_9 
XFE_OFC2028_IxIt_shift_9 INV2 $PINS O=FE_DBTN111_IxIt_shift_9 
+ I=FE_OFN1359_IxIt_shift_9 
XFE_OFC2027_IxIt_shift_9 BUF1 $PINS O=FE_OFN1359_IxIt_shift_9 I=B[9] 
XFE_OFC2025_Iy2_shift_10 BUF1 $PINS O=FE_OFN1510_n231 I=FE_OFN1300_Iy2_shift_10 
XFE_OFC2024_Iy2_shift_10 INV1S $PINS O=n231 I=FE_OFN1300_Iy2_shift_10 
XFE_OFC2020_Iy2_shift_10 INV1S $PINS O=FE_OFN1300_Iy2_shift_10 I=A[10] 
XFE_OFC1965_n1438 BUF1 $PINS O=FE_OFN1488_FE_DBTN38_n1438 I=FE_OFN1201_n1438 
XFE_OFC1964_n1438 BUF1 $PINS O=FE_OFN1203_n1438 I=FE_OFN1490_FE_DBTN38_n1438 
XFE_OFC1961_n1438 BUF1 $PINS O=FE_OFN1201_n1438 I=FE_OFN1207_n1438 
XFE_OFC1959_n1438 BUF1 $PINS O=FE_OFN1490_FE_DBTN38_n1438 I=A[3] 
XFE_OFC1957_n1438 BUF1 $PINS O=FE_OFN1207_n1438 I=n1438 
XFE_OFC1936_Iy2_shift_2 BUF1 $PINS O=FE_OFN1605_Iy2_shift_2 
+ I=FE_OFN1451_FE_DBTN129_Iy2_shift_2 
XFE_OFC1935_Iy2_shift_2 BUF1 $PINS O=FE_OFN1450_FE_DBTN129_Iy2_shift_2 
+ I=FE_OFN1451_FE_DBTN129_Iy2_shift_2 
XFE_OFC1931_Iy2_shift_2 BUF1 $PINS O=FE_OFN1451_FE_DBTN129_Iy2_shift_2 
+ I=FE_DBTN129_Iy2_shift_2 
XFE_OFC1930_Iy2_shift_2 INV1S $PINS O=FE_OFN1449_FE_DBTN129_Iy2_shift_2 
+ I=FE_DBTN129_Iy2_shift_2 
XFE_OFC1926_Iy2_shift_2 BUF1 $PINS O=FE_DBTN129_Iy2_shift_2 I=A[2] 
XFE_OFC1905_n1437 BUF1 $PINS O=FE_OFN1598_n1437 I=B[2] 
XFE_OFC1904_n1437 BUF1 $PINS O=FE_OFN1597_n1437 I=B[2] 
XFE_OFC1899_n1437 BUF1 $PINS O=FE_OFN1198_n1437 I=FE_OFN177_n1437 
XFE_OFC1799_Iy2_shift_13 BUF1CK $PINS O=FE_OFN1011_FE_DBTN138_Iy2_shift_13 
+ I=FE_OFN1012_FE_DBTN138_Iy2_shift_13 
XFE_OFC1795_Iy2_shift_13 INV1S $PINS O=FE_OFN1012_FE_DBTN138_Iy2_shift_13 
+ I=FE_OFN964_Iy2_shift_13 
XFE_OFC1793_Iy2_shift_13 BUF1 $PINS O=FE_OFN964_Iy2_shift_13 
+ I=FE_OFN962_Iy2_shift_13 
XFE_OFC1791_Iy2_shift_13 BUF1 $PINS O=FE_OFN962_Iy2_shift_13 I=A[13] 
XFE_OFC1763_Iy2_shift_11 BUF1 $PINS O=FE_OFN1436_FE_DBTN137_Iy2_shift_11 
+ I=FE_OFN4284_n 
XFE_OFC1762_Iy2_shift_11 INV1S $PINS O=FE_OFN1296_Iy2_shift_11 I=FE_OFN4284_n 
XFE_OFC1761_Iy2_shift_11 INV1S $PINS O=FE_OFN1298_Iy2_shift_11 
+ I=FE_OFN4221_FE_OFN1293_Iy2_shift_11 
XFE_OFC1758_Iy2_shift_11 INV1S $PINS O=FE_OFN1293_Iy2_shift_11 I=A[11] 
XFE_OFC1757_Iy2_shift_11 INV1S $PINS O=FE_OFN1438_FE_DBTN137_Iy2_shift_11 
+ I=A[11] 
XFE_OFC1671_Iy2_shift_8 BUF1 $PINS O=FE_OFN1309_Iy2_shift_8 
+ I=FE_OFN4335_Iy2_shift_8 
XFE_OFC1670_Iy2_shift_8 INV1S $PINS O=FE_OFN1512_n410 I=FE_OFN4335_Iy2_shift_8 
XFE_OFC1644_IxIt_shift_8 INV1S $PINS O=FE_DBTN109_IxIt_shift_8 
+ I=FE_OFN228_IxIt_shift_8 
XFE_OFC1643_IxIt_shift_8 INV1S $PINS O=FE_OFN1466_FE_DBTN109_IxIt_shift_8 
+ I=FE_OFN4261_FE_OFN1361_IxIt_shift_8 
XFE_OFC1641_IxIt_shift_8 BUF1 $PINS O=FE_OFN1362_IxIt_shift_8 
+ I=FE_OFN228_IxIt_shift_8 
XFE_OFC1598_Iy2_shift_9 INV1S $PINS O=FE_DBTN136_Iy2_shift_9 
+ I=FE_OFN1308_Iy2_shift_9 
XFE_OFC1597_Iy2_shift_9 BUF1 $PINS O=FE_OFN1308_Iy2_shift_9 
+ I=FE_OFN2741_Iy2_shift_9 
XFE_OFC1534_n444 BUF1 $PINS O=FE_OFN1536_n444 I=n444 
XFE_OFC1532_n424 BUF1 $PINS O=FE_OFN1534_n424 I=n424 
XFE_OFC1513_n458 BUF1 $PINS O=FE_OFN1515_n458 I=n458 
XFE_OFC1512_n457 BUF1 $PINS O=FE_OFN1514_n457 I=n457 
XFE_OFC1509_n307 BUF1 $PINS O=FE_OFN1511_n307 I=n307 
XFE_OFC1498_FE_DBTN28_IxIt_shift_7 BUF1 $PINS 
+ O=FE_OFN1500_FE_DBTN28_IxIt_shift_7 I=B[7] 
XFE_OFC1468_FE_DBTN103_IxIt_shift_3 BUF1 $PINS 
+ O=FE_OFN1470_FE_DBTN103_IxIt_shift_3 I=FE_DBTN103_IxIt_shift_3 
XFE_OFC1467_FE_DBTN103_IxIt_shift_3 BUF1 $PINS 
+ O=FE_OFN1469_FE_DBTN103_IxIt_shift_3 I=FE_DBTN103_IxIt_shift_3 
XFE_OFC1458_FE_DBTN112_IxIt_shift_10 BUF1 $PINS 
+ O=FE_OFN1460_FE_DBTN112_IxIt_shift_10 I=FE_DBTN112_IxIt_shift_10 
XFE_OFC1444_FE_DBTN132_Iy2_shift_6 BUF1 $PINS 
+ O=FE_OFN1446_FE_DBTN132_Iy2_shift_6 I=FE_DBTN132_Iy2_shift_6 
XFE_OFC1315_Iy2_shift_6 BUF1 $PINS O=FE_OFN1317_Iy2_shift_6 I=A[6] 
XFE_OFC1249_n4487 BUF1 $PINS O=FE_OFN1251_n4487 I=FE_OFN1249_n4487 
XFE_OFC1247_n4487 BUF1 $PINS O=FE_OFN1249_n4487 I=FE_OFN186_n4487 
XFE_OFC1213_n1667 BUF1 $PINS O=FE_OFN1215_n1667 I=A[12] 
XFE_OFC1206_n1622 BUF1 $PINS O=FE_OFN1208_n1622 I=A[7] 
XFE_OFC1193_FE_DBTN12_Iy2_shift_15 BUF1 $PINS 
+ O=FE_OFN1195_FE_DBTN12_Iy2_shift_15 I=FE_OFN1194_FE_DBTN12_Iy2_shift_15 
XFE_OFC1017_FE_DBTN115_IxIt_shift_14 INV1S $PINS 
+ O=FE_OFN1019_FE_DBTN115_IxIt_shift_14 I=FE_OFN1017_FE_DBTN115_IxIt_shift_14 
XFE_OFC1016_FE_DBTN115_IxIt_shift_14 INV1S $PINS 
+ O=FE_OFN1018_FE_DBTN115_IxIt_shift_14 I=FE_OFN1017_FE_DBTN115_IxIt_shift_14 
XFE_OFC1015_FE_DBTN115_IxIt_shift_14 INV1S $PINS 
+ O=FE_OFN1017_FE_DBTN115_IxIt_shift_14 I=FE_DBTN115_IxIt_shift_14 
XFE_OFC993_n143 BUF1 $PINS O=FE_OFN995_n143 I=n143 
XFE_OFC882_FE_DBTN128_Iy2_shift_0 BUF1 $PINS O=FE_OFN884_FE_DBTN128_Iy2_shift_0 
+ I=FE_DBTN128_Iy2_shift_0 
XFE_OFC863_IxIt_shift_0 BUF1 $PINS O=FE_OFN865_IxIt_shift_0 I=B[0] 
XFE_OFC838_Iy2_shift_0 BUF1 $PINS O=FE_OFN840_Iy2_shift_0 
+ I=FE_OFN4128_Iy2_shift_0 
XFE_OFC836_Iy2_shift_1 BUF1 $PINS O=FE_OFN838_Iy2_shift_1 
+ I=FE_OFN835_Iy2_shift_1 
XFE_OFC833_Iy2_shift_1 BUF1 $PINS O=FE_OFN835_Iy2_shift_1 
+ I=FE_OFN4116_Iy2_shift_1 
XFE_OFC257_i_reset_n_i BUF1 $PINS O=FE_OFN259_i_reset_n_i 
+ I=FE_OFN101_i_reset_n_i 
XFE_OFC231_i_reset_n_i BUF1 $PINS O=FE_OFN233_i_reset_n_i 
+ I=FE_OFN200_i_reset_n_i 
XFE_OFC230_i_reset_n_i BUF1 $PINS O=FE_OFN232_i_reset_n_i 
+ I=FE_OFN200_i_reset_n_i 
XFE_OFC228_i_reset_n_i BUF1 $PINS O=FE_OFN230_i_reset_n_i 
+ I=FE_OFN92_i_reset_n_i 
XFE_OFC198_i_reset_n_i BUF1 $PINS O=FE_OFN200_i_reset_n_i 
+ I=FE_OFN73_i_reset_n_i 
XFE_OFC182_i_reset_n_i BUF1 $PINS O=FE_OFN184_i_reset_n_i 
+ I=FE_OFN64_i_reset_n_i 
XFE_DBTC132_Iy2_shift_6 INV1S $PINS O=FE_DBTN132_Iy2_shift_6 
+ I=FE_OFN1317_Iy2_shift_6 
XFE_DBTC131_Iy2_shift_4 INV1S $PINS O=FE_DBTN131_Iy2_shift_4 I=A[4] 
XFE_DBTC128_Iy2_shift_0 INV2 $PINS O=FE_DBTN128_Iy2_shift_0 
+ I=FE_OFN840_Iy2_shift_0 
XFE_DBTC115_IxIt_shift_14 INV1S $PINS O=FE_DBTN115_IxIt_shift_14 
+ I=FE_OFN151_IxIt_shift_14 
XFE_DBTC112_IxIt_shift_10 INV1S $PINS O=FE_DBTN112_IxIt_shift_10 
+ I=FE_OFN227_IxIt_shift_10 
XFE_DBTC103_IxIt_shift_3 INV1S $PINS O=FE_DBTN103_IxIt_shift_3 
+ I=FE_OFN234_IxIt_shift_3 
Xs1_P0_reg[9] QDFFRBN $PINS Q=s1_P0[9] D=N10 CK=clk RB=FE_OFN199_i_reset_n_i 
Xs1_P0_reg[7] QDFFRBN $PINS Q=FE_PHN3130_N75 D=N8 CK=clk_clone1 
+ RB=FE_OFN92_i_reset_n_i 
Xs1_P0_reg[6] QDFFRBN $PINS Q=N74 D=N7 CK=clk_clone1 RB=FE_OFN92_i_reset_n_i 
Xs1_P0_reg[5] QDFFRBN $PINS Q=N73 D=N6 CK=clk_clone1 RB=FE_OFN72_i_reset_n_i 
Xs1_P0_reg[4] QDFFRBN $PINS Q=FE_PHN3102_N72 D=N5 CK=clk_clone1 
+ RB=FE_OFN72_i_reset_n_i 
Xs1_P0_reg[3] QDFFRBN $PINS Q=FE_PHN3107_N71 D=N4 CK=clk_clone1 
+ RB=FE_OFN72_i_reset_n_i 
Xs1_P0_reg[2] QDFFRBN $PINS Q=FE_PHN3112_N70 D=N3 CK=clk_clone1 
+ RB=FE_OFN92_i_reset_n_i 
Xs1_P0_reg[1] QDFFRBN $PINS Q=N69 D=N2 CK=clk_clone1 RB=FE_OFN230_i_reset_n_i 
Xs1_P0_reg[0] QDFFRBN $PINS Q=N68 D=N1 CK=clk_clone1 RB=FE_OFN259_i_reset_n_i 
Xs1_P1_reg[15] QDFFRBN $PINS Q=s1_P1[15] D=N33 CK=clk_clone1 
+ RB=FE_OFN230_i_reset_n_i 
Xs1_P1_reg[1] QDFFRBN $PINS Q=s1_P1[1] D=N19 CK=clk RB=FE_OFN200_i_reset_n_i 
Xs1_P2_reg[15] QDFFRBN $PINS Q=s1_P2[15] D=N50 CK=clk_clone1 
+ RB=FE_OFN230_i_reset_n_i 
Xs1_P2_reg[1] QDFFRBN $PINS Q=s1_P2[1] D=N36 CK=clk RB=FE_OFN199_i_reset_n_i 
Xs1_P3_reg[14] QDFFRBN $PINS Q=s1_P3[14] D=N66 CK=clk_clone1 
+ RB=FE_OFN50_i_reset_n_i 
Xs1_P3_reg[13] QDFFRBN $PINS Q=s1_P3[13] D=N65 CK=clk_clone1 
+ RB=FE_OFN50_i_reset_n_i 
Xs1_P3_reg[12] QDFFRBN $PINS Q=s1_P3[12] D=N64 CK=clk_clone1 
+ RB=FE_OFN50_i_reset_n_i 
Xs1_P3_reg[11] QDFFRBN $PINS Q=s1_P3[11] D=N63 CK=clk_clone1 
+ RB=FE_OFN90_i_reset_n_i 
Xs1_P3_reg[10] QDFFRBN $PINS Q=s1_P3[10] D=N62 CK=clk_clone1 
+ RB=FE_OFN107_i_reset_n_i 
Xs1_P3_reg[9] QDFFRBN $PINS Q=s1_P3[9] D=N61 CK=clk_clone1 
+ RB=FE_OFN107_i_reset_n_i 
Xs1_P3_reg[8] QDFFRBN $PINS Q=s1_P3[8] D=N60 CK=clk_clone1 
+ RB=FE_OFN230_i_reset_n_i 
Xs1_P3_reg[7] QDFFRBN $PINS Q=s1_P3[7] D=N59 CK=clk_clone1 
+ RB=FE_OFN230_i_reset_n_i 
Xs2_result_reg[31] QDFFRBN $PINS Q=result[31] D=N99 CK=clk_clone3 
+ RB=FE_OFN23_i_reset_n_i 
Xs2_result_reg[30] QDFFRBN $PINS Q=result[30] D=N98 CK=clk_clone3 
+ RB=FE_OFN42_i_reset_n_i 
Xs2_result_reg[29] QDFFRBN $PINS Q=result[29] D=N97 CK=clk_clone3 
+ RB=FE_OFN42_i_reset_n_i 
Xs2_result_reg[28] QDFFRBN $PINS Q=result[28] D=N96 CK=clk_clone1 
+ RB=FE_OFN64_i_reset_n_i 
Xs2_result_reg[27] QDFFRBN $PINS Q=result[27] D=N95 CK=clk_clone3 
+ RB=FE_OFN62_i_reset_n_i 
Xs2_result_reg[26] QDFFRBN $PINS Q=result[26] D=N94 CK=clk_clone3 
+ RB=FE_OFN42_i_reset_n_i 
Xs2_result_reg[24] QDFFRBN $PINS Q=result[24] D=N92 CK=clk_clone1 
+ RB=FE_OFN64_i_reset_n_i 
Xs2_result_reg[23] QDFFRBN $PINS Q=result[23] D=N91 CK=clk_clone1 
+ RB=FE_OFN64_i_reset_n_i 
Xs2_result_reg[22] QDFFRBN $PINS Q=result[22] D=N90 CK=clk_clone3 
+ RB=FE_OFN23_i_reset_n_i 
Xs2_result_reg[21] QDFFRBN $PINS Q=result[21] D=N89 CK=clk_clone3 
+ RB=FE_OFN184_i_reset_n_i 
Xs2_result_reg[20] QDFFRBN $PINS Q=result[20] D=N88 CK=clk_clone3 
+ RB=FE_OFN184_i_reset_n_i 
Xs2_result_reg[19] QDFFRBN $PINS Q=result[19] D=N87 CK=clk_clone2 
+ RB=FE_OFN39_i_reset_n_i 
Xs2_result_reg[18] QDFFRBN $PINS Q=result[18] D=N86 CK=clk_clone2 
+ RB=FE_OFN39_i_reset_n_i 
Xs2_result_reg[17] QDFFRBN $PINS Q=result[17] D=N85 CK=clk_clone2 
+ RB=FE_OFN99_i_reset_n_i 
Xs2_result_reg[16] QDFFRBN $PINS Q=result[16] D=N84 CK=clk_clone2 
+ RB=FE_OFN85_i_reset_n_i 
Xs2_result_reg[15] QDFFRBN $PINS Q=result[15] D=N83 CK=clk_clone2 
+ RB=FE_OFN66_i_reset_n_i 
Xs2_result_reg[14] QDFFRBN $PINS Q=result[14] D=N82 CK=clk_clone2 
+ RB=FE_OFN43_i_reset_n_i 
Xs2_result_reg[13] QDFFRBN $PINS Q=result[13] D=N81 CK=clk_clone2 
+ RB=FE_OFN99_i_reset_n_i 
Xs2_result_reg[12] QDFFRBN $PINS Q=result[12] D=N80 CK=clk_clone2 
+ RB=FE_OFN43_i_reset_n_i 
Xs2_result_reg[11] QDFFRBN $PINS Q=result[11] D=N79 CK=clk_clone1 RB=rst_n 
Xs2_result_reg[9] QDFFRBN $PINS Q=result[9] D=N77 CK=clk_clone1 RB=rst_n 
Xs2_result_reg[8] QDFFRBN $PINS Q=result[8] D=FE_PHN3301_N76 CK=clk_clone3 
+ RB=FE_OFN114_i_reset_n_i 
Xs2_result_reg[7] QDFFRBN $PINS Q=result[7] D=N75 CK=clk_clone3 
+ RB=FE_OFN111_i_reset_n_i 
Xs2_result_reg[6] QDFFRBN $PINS Q=result[6] D=FE_PHN3133_N74 CK=clk_clone3 
+ RB=FE_OFN111_i_reset_n_i 
Xs2_result_reg[5] QDFFRBN $PINS Q=result[5] D=FE_PHN3109_N73 CK=clk_clone1 
+ RB=FE_OFN83_i_reset_n_i 
Xs2_result_reg[4] QDFFRBN $PINS Q=result[4] D=N72 CK=clk_clone1 
+ RB=FE_OFN83_i_reset_n_i 
Xs2_result_reg[3] QDFFRBN $PINS Q=result[3] D=N71 CK=clk_clone1 
+ RB=FE_OFN90_i_reset_n_i 
Xs2_result_reg[2] QDFFRBN $PINS Q=result[2] D=N70 CK=clk_clone1 
+ RB=FE_OFN90_i_reset_n_i 
Xs2_result_reg[1] QDFFRBN $PINS Q=result[1] D=FE_PHN3105_N69 CK=clk_clone1 
+ RB=FE_OFN107_i_reset_n_i 
Xs2_result_reg[0] QDFFRBN $PINS Q=result[0] D=FE_PHN3124_N68 CK=clk_clone1 
+ RB=FE_OFN107_i_reset_n_i 
Xintadd_39/U14 FA1S $PINS S=N20 CO=intadd_39/n13 A=intadd_39/B[0] 
+ B=intadd_39/A[0] CI=intadd_39/CI 
Xintadd_39/U13 FA1 $PINS S=N21 CO=intadd_39/n12 A=intadd_39/B[1] 
+ B=intadd_39/A[1] CI=intadd_39/n13 
Xintadd_39/U12 FA1 $PINS S=N22 CO=intadd_39/n11 A=intadd_39/B[2] 
+ B=intadd_39/A[2] CI=intadd_39/n12 
Xintadd_39/U11 FA1 $PINS S=N23 CO=intadd_39/n10 A=intadd_39/B[3] 
+ B=intadd_39/A[3] CI=intadd_39/n11 
Xintadd_39/U10 FA1 $PINS S=N24 CO=intadd_39/n9 A=intadd_39/B[4] 
+ B=intadd_39/A[4] CI=intadd_39/n10 
Xintadd_39/U9 FA1 $PINS S=N25 CO=intadd_39/n8 A=intadd_39/B[5] B=intadd_39/A[5] 