* SPICE NETLIST
***************************************

.SUBCKT L POS NEG SUB
.ENDS
***************************************
.SUBCKT XMD I SMT PU PD O
** N=6 EP=5 IP=0 FDC=0
.ENDS
***************************************
.SUBCKT ICV_1 1 11 12 13 14 15 16 17 18 19 20 21 22 23 24 25 26 27 57
** N=82 EP=19 IP=42 FDC=0
X0 13 1 1 1 14 XMD $T=229400 1200080 0 180 $X=169630 $Y=1060580
X1 15 1 1 1 16 XMD $T=318680 1200080 0 180 $X=258910 $Y=1060580
X2 17 18 18 18 19 XMD $T=675800 1200080 0 180 $X=616030 $Y=1060580
X3 20 18 18 18 21 XMD $T=765080 1200080 0 180 $X=705310 $Y=1060580
X4 22 11 11 11 23 XMD $T=854360 1200080 0 180 $X=794590 $Y=1060580
X5 24 12 11 11 25 XMD $T=943640 1200080 0 180 $X=883870 $Y=1060580
X6 26 12 12 12 27 XMD $T=1032920 1200080 0 180 $X=973150 $Y=1060580
.ENDS
***************************************
.SUBCKT YA2GSD O E2 E8 E4 I SR E
** N=8 EP=7 IP=0 FDC=0
.ENDS
***************************************
.SUBCKT TIE1 O VCC GND
** N=4 EP=3 IP=0 FDC=0
.ENDS
***************************************
.SUBCKT BUF1 I VCC GND O
** N=5 EP=4 IP=0 FDC=0
.ENDS
***************************************
.SUBCKT QDFFRBN D CK RB VCC GND Q
** N=7 EP=6 IP=0 FDC=0
.ENDS
***************************************
.SUBCKT INV3 I O GND VCC
** N=5 EP=4 IP=0 FDC=0
.ENDS
***************************************
.SUBCKT INV1S I VCC O GND
** N=5 EP=4 IP=0 FDC=0
.ENDS
***************************************
.SUBCKT FA1 S B VCC A CI GND CO
** N=8 EP=7 IP=0 FDC=0
.ENDS
***************************************
.SUBCKT FA1S CO VCC A B CI GND S
** N=8 EP=7 IP=0 FDC=0
.ENDS
***************************************
.SUBCKT NR2 I1 VCC O I2 GND
** N=6 EP=5 IP=0 FDC=0
.ENDS
***************************************
.SUBCKT OR2 I2 I1 VCC GND O
** N=6 EP=5 IP=0 FDC=0
.ENDS
***************************************
.SUBCKT ND2S I1 O I2 VCC GND
** N=6 EP=5 IP=0 FDC=0
.ENDS
***************************************
.SUBCKT OAI12H B2 B1 GND A1 O VCC
** N=7 EP=6 IP=0 FDC=0
.ENDS
***************************************
.SUBCKT AOI12H B2 B1 VCC O A1 GND
** N=7 EP=6 IP=0 FDC=0
.ENDS
***************************************
.SUBCKT XOR2HS I1 I2 O VCC GND
** N=6 EP=5 IP=0 FDC=0
.ENDS
***************************************
.SUBCKT XNR2HS I1 I2 O VCC GND
** N=6 EP=5 IP=0 FDC=0
.ENDS
***************************************
.SUBCKT MUX2 B S VCC GND O A
** N=7 EP=6 IP=0 FDC=0
.ENDS
***************************************
.SUBCKT DELB I GND VCC O
** N=5 EP=4 IP=0 FDC=0
.ENDS
***************************************
.SUBCKT AN2 I1 I2 GND VCC O
** N=6 EP=5 IP=0 FDC=0
.ENDS
***************************************
.SUBCKT AOI12HS B2 B1 VCC A1 GND O
** N=7 EP=6 IP=0 FDC=0
.ENDS
***************************************
.SUBCKT OA12 B2 B1 A1 GND VCC O
** N=7 EP=6 IP=0 FDC=0
.ENDS
***************************************
.SUBCKT QDFFRBS D CK RB VCC GND Q
** N=7 EP=6 IP=0 FDC=0
.ENDS
***************************************
.SUBCKT BUF1CK I GND VCC O
** N=5 EP=4 IP=0 FDC=0
.ENDS
***************************************
.SUBCKT FACS1S CO1 CI1 S CS CI0 CO0 GND A VCC B
** N=11 EP=10 IP=0 FDC=0
.ENDS
***************************************
.SUBCKT INV6CK I O GND VCC
** N=5 EP=4 IP=0 FDC=0
.ENDS
***************************************
.SUBCKT INV12CK I O GND VCC
** N=5 EP=4 IP=0 FDC=0
.ENDS
***************************************
.SUBCKT ICV_2 1 2 3 4 5 6 8 9 10 11 12 13 14 15 16 17 18 19 20 21
+ 22 24 25 26 28 29 31 32 33 34 35 36 38 39 41 42 43 45 46 47
+ 48 49 50 51 52 54 55 56 57 58 59 61 62 63 64 65 66 68 69 70
+ 71 72 73 74 75 76 77 78 79 80 81 82 83 84 85 86 87 88 89 90
+ 91 92 93 94 95 96 97 98 99 100 101 102 103 104 105 106 107 137
** N=191 EP=98 IP=525 FDC=0
X0 106 104 104 104 107 103 105 YA2GSD $T=1199700 970640 0 90 $X=1060200 $Y=973490
X1 105 2 1 TIE1 $T=975260 961080 0 0 $X=975260 $Y=960700
X2 8 2 1 3 BUF1 $T=230020 971160 0 0 $X=230020 $Y=970780
X3 34 2 1 38 BUF1 $T=438340 961080 0 0 $X=438340 $Y=960700
X4 73 2 1 75 BUF1 $T=607600 971160 1 0 $X=607600 $Y=965740
X5 99 2 1 98 BUF1 $T=819020 971160 1 180 $X=816540 $Y=970780
X6 73 2 1 100 BUF1 $T=841960 961080 0 0 $X=841960 $Y=960700
X7 103 2 1 99 BUF1 $T=916980 971160 1 180 $X=914500 $Y=970780
X8 104 2 1 103 BUF1 $T=970920 971160 1 180 $X=968440 $Y=970780
X9 21 22 19 2 1 140 QDFFRBN $T=330460 961080 0 0 $X=330460 $Y=960700
X10 25 22 24 2 1 139 QDFFRBN $T=361460 971160 0 180 $X=349680 $Y=965740
X11 144 22 34 2 1 36 QDFFRBN $T=417880 961080 0 0 $X=417880 $Y=960700
X12 35 22 38 2 1 145 QDFFRBN $T=430900 971160 0 0 $X=430900 $Y=970780
X13 39 22 38 2 1 146 QDFFRBN $T=440820 971160 1 0 $X=440820 $Y=965740
X14 51 50 48 2 1 152 QDFFRBN $T=510880 961080 1 180 $X=499100 $Y=960700
X15 156 50 49 2 1 155 QDFFRBN $T=513360 971160 1 180 $X=501580 $Y=970780
X16 56 50 49 2 1 52 QDFFRBN $T=525140 961080 1 180 $X=513360 $Y=960700
X17 159 50 49 2 1 157 QDFFRBN $T=533200 971160 1 180 $X=521420 $Y=970780
X18 171 74 73 2 1 170 QDFFRBN $T=607600 971160 1 180 $X=595820 $Y=970780
X19 173 74 75 2 1 172 QDFFRBN $T=623720 971160 0 180 $X=611940 $Y=965740
X20 178 74 80 2 1 175 QDFFRBN $T=659060 971160 1 180 $X=647280 $Y=970780
X21 179 74 80 2 1 81 QDFFRBN $T=664640 961080 1 180 $X=652860 $Y=960700
X22 181 74 80 2 1 78 QDFFRBN $T=677660 971160 1 180 $X=665880 $Y=970780
X23 97 96 73 2 1 190 QDFFRBN $T=806000 971160 0 180 $X=794220 $Y=965740
X24 102 96 100 2 1 101 QDFFRBN $T=884740 961080 1 180 $X=872960 $Y=960700
X25 139 20 1 2 INV3 $T=331700 971160 0 180 $X=329220 $Y=965740
X26 190 95 1 2 INV3 $T=779960 961080 1 180 $X=777480 $Y=960700
X27 138 2 16 1 INV1S $T=291400 971160 0 0 $X=291400 $Y=970780
X28 17 2 18 1 INV1S $T=311240 971160 0 0 $X=311240 $Y=970780
X29 18 2 19 1 INV1S $T=323020 961080 0 0 $X=323020 $Y=960700
X30 18 2 34 1 INV1S $T=422220 971160 0 0 $X=422220 $Y=970780
X31 146 2 147 1 INV1S $T=453840 971160 1 0 $X=453840 $Y=965740
X32 145 2 148 1 INV1S $T=453840 971160 0 0 $X=453840 $Y=970780
X33 62 2 160 1 INV1S $T=543740 961080 1 180 $X=542500 $Y=960700
X34 166 2 165 1 INV1S $T=567920 971160 1 180 $X=566680 $Y=970780
X35 69 2 169 1 INV1S $T=581560 971160 0 0 $X=581560 $Y=970780
X36 172 2 65 1 INV1S $T=591480 961080 1 180 $X=590240 $Y=960700
X37 170 2 168 1 INV1S $T=591480 971160 1 180 $X=590240 $Y=970780
X38 76 2 174 1 INV1S $T=626200 971160 1 0 $X=626200 $Y=965740
X39 175 2 177 1 INV1S $T=642320 971160 1 180 $X=641080 $Y=970780
X40 87 2 182 1 INV1S $T=707420 961080 1 180 $X=706180 $Y=960700
X41 84 2 85 1 INV1S $T=709280 971160 1 0 $X=709280 $Y=965740
X42 88 2 185 1 INV1S $T=716100 971160 0 180 $X=714860 $Y=965740
X43 186 2 184 1 INV1S $T=726640 971160 1 180 $X=725400 $Y=970780
X44 187 2 189 1 INV1S $T=739040 961080 0 0 $X=739040 $Y=960700
X45 91 2 188 1 INV1S $T=750820 961080 0 0 $X=750820 $Y=960700
X46 93 2 94 1 INV1S $T=761360 961080 0 0 $X=761360 $Y=960700
X47 171 175 2 174 176 1 77 FA1 $T=622480 971160 0 0 $X=622480 $Y=970780
X48 173 78 2 177 79 1 176 FA1 $T=649140 961080 1 180 $X=633640 $Y=960700
X49 179 189 2 188 92 1 183 FA1 $T=754540 971160 1 180 $X=739040 $Y=970780
X50 141 2 140 28 26 1 142 FA1S $T=358980 961080 0 0 $X=358980 $Y=960700
X51 83 2 182 82 180 1 178 FA1S $T=693780 971160 0 180 $X=682000 $Y=965740
X52 180 2 184 185 183 1 181 FA1S $T=708660 971160 1 180 $X=696880 $Y=970780
X53 186 2 86 90 89 1 187 FA1S $T=721680 961080 0 0 $X=721680 $Y=960700
X54 153 2 45 154 1 NR2 $T=479880 971160 0 0 $X=479880 $Y=970780
X55 71 2 70 72 1 NR2 $T=584040 961080 0 0 $X=584040 $Y=960700
X56 169 2 167 170 1 NR2 $T=585280 971160 1 0 $X=585280 $Y=965740
X57 149 41 2 1 150 OR2 $T=460040 971160 1 0 $X=460040 $Y=965740
X58 148 152 2 1 153 OR2 $T=479880 961080 0 0 $X=479880 $Y=960700
X59 147 155 2 1 47 OR2 $T=493520 961080 0 0 $X=493520 $Y=960700
X60 168 69 2 1 164 OR2 $T=580320 971160 0 180 $X=577840 $Y=965740
X61 141 33 32 2 1 ND2S $T=404860 961080 0 0 $X=404860 $Y=960700
X62 154 46 153 2 1 ND2S $T=487320 961080 0 0 $X=487320 $Y=960700
X63 160 158 61 2 1 ND2S $T=542500 971160 1 0 $X=542500 $Y=965740
X64 65 61 64 2 1 ND2S $T=557380 971160 1 0 $X=557380 $Y=965740
X65 164 163 166 2 1 ND2S $T=561100 971160 0 0 $X=561100 $Y=970780
X66 168 166 69 2 1 ND2S $T=574740 971160 0 0 $X=574740 $Y=970780
X67 62 58 1 61 162 2 OAI12H $T=548080 971160 1 0 $X=548080 $Y=965740
X68 167 63 1 164 68 2 OAI12H $T=574740 971160 0 180 $X=568540 $Y=965740
X69 164 162 2 66 165 1 AOI12H $T=561720 961080 0 0 $X=561720 $Y=960700
X70 158 58 56 2 1 XOR2HS $T=540020 961080 1 180 $X=534440 $Y=960700
X71 163 63 161 2 1 XOR2HS $T=558000 971160 1 180 $X=552420 $Y=970780
X72 152 148 149 2 1 XNR2HS $T=476780 961080 1 180 $X=471200 $Y=960700
X73 155 147 154 2 1 XNR2HS $T=491040 971160 1 180 $X=485460 $Y=970780
X74 158 55 54 2 1 XNR2HS $T=532580 971160 0 180 $X=527000 $Y=965740
X75 163 162 159 2 1 XNR2HS $T=551180 971160 1 180 $X=545600 $Y=970780
X76 161 59 2 1 57 159 MUX2 $T=541880 971160 1 180 $X=537540 $Y=970780
X77 157 1 2 156 DELB $T=513360 971160 0 0 $X=513360 $Y=970780
X78 149 41 1 2 151 AN2 $T=466860 971160 0 0 $X=466860 $Y=970780
X79 150 42 2 151 1 43 AOI12HS $T=465000 961080 0 0 $X=465000 $Y=960700
X80 32 141 33 1 2 144 OA12 $T=403000 971160 0 0 $X=403000 $Y=970780
X81 143 22 29 2 1 31 QDFFRBS $T=376960 971160 1 0 $X=376960 $Y=965740
X82 142 1 2 143 BUF1CK $T=370760 961080 0 0 $X=370760 $Y=960700
X83 9 11 13 14 15 138 1 10 2 12 FACS1S $T=251100 971160 1 0 $X=251100 $Y=965740
X84 5 6 1 2 INV6CK $T=221960 961080 0 0 $X=221960 $Y=960700
X85 4 5 1 2 INV12CK $T=220100 971160 0 0 $X=220100 $Y=970780
.ENDS
***************************************
.SUBCKT OR2B1S I1 B1 GND O VCC
** N=6 EP=5 IP=0 FDC=0
.ENDS
***************************************
.SUBCKT ND2 I1 O I2 GND VCC
** N=6 EP=5 IP=0 FDC=0
.ENDS
***************************************
.SUBCKT OAI12HS B2 B1 GND A1 VCC O
** N=7 EP=6 IP=0 FDC=0
.ENDS
***************************************
.SUBCKT OAI22S B2 GND B1 A2 O A1 VCC
** N=8 EP=7 IP=0 FDC=0
.ENDS
***************************************
.SUBCKT AO13S B3 B2 B1 A1 GND VCC O
** N=8 EP=7 IP=0 FDC=0
.ENDS
***************************************
.SUBCKT AOI22S A1 B1 O B2 GND A2 VCC
** N=8 EP=7 IP=0 FDC=0
.ENDS
***************************************
.SUBCKT BUF2 I O GND VCC
** N=5 EP=4 IP=0 FDC=0
.ENDS
***************************************
.SUBCKT INV2 I O GND VCC
** N=5 EP=4 IP=0 FDC=0
.ENDS
***************************************
.SUBCKT MOAI1S B1 B2 GND A1 A2 O VCC
** N=8 EP=7 IP=0 FDC=0
.ENDS
***************************************
.SUBCKT AOI13HS B3 O B2 B1 VCC A1 GND
** N=8 EP=7 IP=0 FDC=0
.ENDS
***************************************
.SUBCKT ND3 I3 GND I2 O VCC I1
** N=7 EP=6 IP=0 FDC=0
.ENDS
***************************************
.SUBCKT MAOI1 B1 B2 A1 A2 VCC GND O
** N=8 EP=7 IP=0 FDC=0
.ENDS
***************************************
.SUBCKT MOAI1 B1 B2 GND A1 O A2 VCC
** N=8 EP=7 IP=0 FDC=0
.ENDS
***************************************
.SUBCKT AO22 O A2 A1 VCC B1 B2 GND
** N=8 EP=7 IP=0 FDC=0
.ENDS
***************************************
.SUBCKT MUX3 B S0 A S1 VCC C GND O
** N=9 EP=8 IP=0 FDC=0
.ENDS
***************************************
.SUBCKT XOR3 I2 I1 I3 VCC GND O
** N=7 EP=6 IP=0 FDC=0
.ENDS
***************************************
.SUBCKT MAO222 B1 A1 C1 GND VCC O
** N=7 EP=6 IP=0 FDC=0
.ENDS
***************************************
.SUBCKT AO12 B2 B1 A1 GND VCC O
** N=7 EP=6 IP=0 FDC=0
.ENDS
***************************************
.SUBCKT BUF4CK I GND O VCC
** N=5 EP=4 IP=0 FDC=0
.ENDS
***************************************
.SUBCKT HA1 A B C GND VCC S
** N=7 EP=6 IP=0 FDC=0
.ENDS
***************************************
.SUBCKT DELA I GND VCC O
** N=5 EP=4 IP=0 FDC=0
.ENDS
***************************************
.SUBCKT BUF1S I GND VCC O
** N=5 EP=4 IP=0 FDC=0
.ENDS
***************************************
.SUBCKT BUF2CK I O GND VCC
** N=5 EP=4 IP=0 FDC=0
.ENDS
***************************************
.SUBCKT BUF3 I VCC GND O
** N=5 EP=4 IP=0 FDC=0
.ENDS
***************************************
.SUBCKT QDFFRBT D CK RB GND VCC Q
** N=7 EP=6 IP=0 FDC=0
.ENDS
***************************************
.SUBCKT ND2P I2 GND I1 O VCC
** N=6 EP=5 IP=0 FDC=0
.ENDS
***************************************
.SUBCKT MXL2HS B S OB A VCC GND
** N=7 EP=6 IP=0 FDC=0
.ENDS
***************************************
.SUBCKT MOAI1H B1 B2 GND A1 O A2 VCC
** N=8 EP=7 IP=0 FDC=0
.ENDS
***************************************
.SUBCKT AN2B1S I1 VCC B1 O GND
** N=6 EP=5 IP=0 FDC=0
.ENDS
***************************************
.SUBCKT MAO222P A1 B1 C1 O GND VCC
** N=7 EP=6 IP=0 FDC=0
.ENDS
***************************************
.SUBCKT MAO222T A1 B1 C1 O GND VCC
** N=7 EP=6 IP=0 FDC=0
.ENDS
***************************************
.SUBCKT ICV_3 1 2 3 4 5 6 7 8 9 10 11 12 13 14 15 16 17 18 19 20
+ 21 22 23 24 25 26 27 28 29 30 31 32 33 34 35 36 37 38 39 40
+ 41 42 43 44 45 46 47 48 49 50 51 52 53 54 55 56 57 58 59 60
+ 61 62 63 64 65 66 67 68 69 70 71 72 73 74 75 76 77 78 79 80
+ 81 82 83 84 85 86 87 88 89 90 91 92 93 94 95 96 97 98 99 100
+ 101 102 103 104 105 106 107 108 109 110 111 112 113 114 115 116 117 118 119 120
+ 121 122 123 124 125 126 127 128 129 130 131 132 133 134 135 136 137 138 139 140
+ 141 142 143 144 145 146 147 148 149 150 151 152 153 154 155 156 157 158 159 160
+ 161 162 163 164 165 166 167 168 169 170 171 172 173 174 175 176 177 178 179 180
+ 181 182 183 184 185 186 187 188 189 190 191 192 193 194 195 196 197 198 199 200
+ 201 202 203 204 205 206 207 208 209 210 211 212 213 214 215 216 217 218 219 220
+ 221 222 223 224 225 226 227 228 229 230 231 232 233 234 235 236 237 238 239 240
+ 241 242 243 244 245 246 247 248 249 250 251 252 253 254 255 256 257 258 259 260
+ 261 262 263 264 265 266 267 268 269 270 271 272 273 274 275 276 277 278 279 280
+ 281 282 283 284 285 286 287 288 289 290 291 292 293 294 295 296 297 298 299 300
+ 301 302 303 304 305 306 307 308 309 310 311 312 313 314 315 316 317 318 319 320
+ 321 322 323 324 325 326 327 328 329 330 331 340
** N=1641 EP=332 IP=7757 FDC=0
X0 330 328 328 328 329 325 331 YA2GSD $T=1199700 881320 0 90 $X=1060200 $Y=884170
X1 3 2 1 5 BUF1 $T=221960 920760 0 0 $X=221960 $Y=920380
X2 6 2 1 348 BUF1 $T=224440 880440 1 0 $X=224440 $Y=875020
X3 7 2 1 343 BUF1 $T=226920 880440 1 0 $X=226920 $Y=875020
X4 8 2 1 384 BUF1 $T=243660 900600 0 0 $X=243660 $Y=900220
X5 22 2 1 16 BUF1 $T=257920 870360 0 180 $X=255440 $Y=864940
X6 410 2 1 4 BUF1 $T=262260 880440 0 180 $X=259780 $Y=875020
X7 430 2 1 25 BUF1 $T=267840 880440 1 180 $X=265360 $Y=880060
X8 28 2 1 395 BUF1 $T=271560 890520 0 0 $X=271560 $Y=890140
X9 27 2 1 372 BUF1 $T=280240 880440 1 0 $X=280240 $Y=875020
X10 34 2 1 434 BUF1 $T=283340 910680 1 180 $X=280860 $Y=910300
X11 32 2 1 406 BUF1 $T=281480 910680 1 0 $X=281480 $Y=905260
X12 517 2 1 346 BUF1 $T=310000 900600 0 180 $X=307520 $Y=895180
X13 45 2 1 8 BUF1 $T=314960 870360 0 180 $X=312480 $Y=864940
X14 524 2 1 525 BUF1 $T=316200 910680 0 0 $X=316200 $Y=910300
X15 512 2 1 47 BUF1 $T=327360 870360 0 0 $X=327360 $Y=869980
X16 552 2 1 512 BUF1 $T=331080 910680 0 180 $X=328600 $Y=905260
X17 49 2 1 552 BUF1 $T=332940 940920 0 0 $X=332940 $Y=940540
X18 49 2 1 51 BUF1 $T=337900 961080 1 0 $X=337900 $Y=955660
X19 591 2 1 430 BUF1 $T=357740 880440 1 180 $X=355260 $Y=880060
X20 47 2 1 56 BUF1 $T=357740 870360 0 0 $X=357740 $Y=869980
X21 56 2 1 615 BUF1 $T=372620 880440 1 0 $X=372620 $Y=875020
X22 645 2 1 646 BUF1 $T=381920 910680 1 0 $X=381920 $Y=905260
X23 51 2 1 63 BUF1 $T=381920 961080 1 0 $X=381920 $Y=955660
X24 493 2 1 645 BUF1 $T=385640 900600 0 0 $X=385640 $Y=900220
X25 45 2 1 621 BUF1 $T=393700 890520 0 180 $X=391220 $Y=885100
X26 517 2 1 623 BUF1 $T=397420 900600 1 0 $X=397420 $Y=895180
X27 524 2 1 706 BUF1 $T=419740 900600 1 0 $X=419740 $Y=895180
X28 517 2 1 702 BUF1 $T=422220 900600 0 0 $X=422220 $Y=900220
X29 78 2 1 740 BUF1 $T=438340 940920 1 0 $X=438340 $Y=935500
X30 825 2 1 773 BUF1 $T=470580 900600 0 180 $X=468100 $Y=895180
X31 740 2 1 825 BUF1 $T=468100 920760 0 0 $X=468100 $Y=920380
X32 740 2 1 840 BUF1 $T=473680 920760 0 0 $X=473680 $Y=920380
X33 102 2 1 834 BUF1 $T=477400 870360 0 0 $X=477400 $Y=869980
X34 840 2 1 828 BUF1 $T=477400 920760 0 0 $X=477400 $Y=920380
X35 840 2 1 887 BUF1 $T=500960 920760 1 0 $X=500960 $Y=915340
X36 887 2 1 113 BUF1 $T=509020 951000 0 180 $X=506540 $Y=945580
X37 887 2 1 120 BUF1 $T=512740 951000 1 0 $X=512740 $Y=945580
X38 112 2 1 886 BUF1 $T=525760 900600 1 0 $X=525760 $Y=895180
X39 112 2 1 122 BUF1 $T=540020 920760 1 0 $X=540020 $Y=915340
X40 1000 2 1 980 BUF1 $T=566680 890520 0 180 $X=564200 $Y=885100
X41 1038 2 1 1000 BUF1 $T=586520 900600 1 180 $X=584040 $Y=900220
X42 158 2 1 1063 BUF1 $T=600160 940920 1 0 $X=600160 $Y=935500
X43 1066 2 1 159 BUF1 $T=612560 880440 1 180 $X=610080 $Y=880060
X44 1063 2 1 1038 BUF1 $T=614420 910680 0 180 $X=611940 $Y=905260
X45 1066 2 1 160 BUF1 $T=613180 880440 1 0 $X=613180 $Y=875020
X46 1063 2 1 1066 BUF1 $T=619380 910680 1 0 $X=619380 $Y=905260
X47 1066 2 1 1100 BUF1 $T=628060 910680 1 0 $X=628060 $Y=905260
X48 1100 2 1 1112 BUF1 $T=647280 910680 1 0 $X=647280 $Y=905260
X49 1112 2 1 1113 BUF1 $T=652240 900600 0 0 $X=652240 $Y=900220
X50 1112 2 1 1129 BUF1 $T=652240 920760 0 0 $X=652240 $Y=920380
X51 1112 2 1 170 BUF1 $T=654720 940920 0 180 $X=652240 $Y=935500
X52 175 2 1 1156 BUF1 $T=672700 910680 0 0 $X=672700 $Y=910300
X53 180 2 1 182 BUF1 $T=680140 870360 1 0 $X=680140 $Y=864940
X54 1186 2 1 1168 BUF1 $T=693160 920760 0 0 $X=693160 $Y=920380
X55 1233 2 1 196 BUF1 $T=704320 870360 0 0 $X=704320 $Y=869980
X56 199 2 1 1237 BUF1 $T=704320 910680 1 0 $X=704320 $Y=905260
X57 1234 2 1 1204 BUF1 $T=704320 920760 1 0 $X=704320 $Y=915340
X58 1237 2 1 1185 BUF1 $T=704940 910680 0 0 $X=704940 $Y=910300
X59 1244 2 1 1214 BUF1 $T=711140 951000 0 180 $X=708660 $Y=945580
X60 1247 2 1 1201 BUF1 $T=711140 930840 1 0 $X=711140 $Y=925420
X61 1234 2 1 1239 BUF1 $T=712380 920760 0 0 $X=712380 $Y=920380
X62 207 2 1 1257 BUF1 $T=713620 910680 0 0 $X=713620 $Y=910300
X63 195 2 1 211 BUF1 $T=716100 880440 1 0 $X=716100 $Y=875020
X64 1259 2 1 1234 BUF1 $T=716720 900600 0 0 $X=716720 $Y=900220
X65 191 2 1 1261 BUF1 $T=720440 900600 1 0 $X=720440 $Y=895180
X66 1233 2 1 1170 BUF1 $T=721060 920760 0 0 $X=721060 $Y=920380
X67 219 2 1 1186 BUF1 $T=724160 920760 1 0 $X=724160 $Y=915340
X68 190 2 1 1247 BUF1 $T=729740 890520 0 0 $X=729740 $Y=890140
X69 1261 2 1 1290 BUF1 $T=732840 920760 1 0 $X=732840 $Y=915340
X70 1235 2 1 1283 BUF1 $T=732840 920760 0 0 $X=732840 $Y=920380
X71 1292 2 1 1174 BUF1 $T=738420 940920 0 180 $X=735940 $Y=935500
X72 1257 2 1 1309 BUF1 $T=739660 910680 0 0 $X=739660 $Y=910300
X73 177 2 1 1265 BUF1 $T=740900 920760 0 0 $X=740900 $Y=920380
X74 225 2 1 1302 BUF1 $T=744000 880440 1 0 $X=744000 $Y=875020
X75 1265 2 1 1289 BUF1 $T=744000 920760 0 0 $X=744000 $Y=920380
X76 247 2 1 1356 BUF1 $T=779960 880440 0 180 $X=777480 $Y=875020
X77 1302 2 1 1367 BUF1 $T=778100 880440 0 0 $X=778100 $Y=880060
X78 255 2 1 1345 BUF1 $T=793600 870360 1 180 $X=791120 $Y=869980
X79 203 2 1 1382 BUF1 $T=791120 880440 0 0 $X=791120 $Y=880060
X80 256 2 1 1373 BUF1 $T=793600 900600 0 180 $X=791120 $Y=895180
X81 1439 2 1 262 BUF1 $T=836380 920760 1 180 $X=833900 $Y=920380
X82 282 2 1 1439 BUF1 $T=856220 940920 1 180 $X=853740 $Y=940540
X83 1472 2 1 289 BUF1 $T=864900 880440 0 180 $X=862420 $Y=875020
X84 282 2 1 1472 BUF1 $T=868000 930840 0 180 $X=865520 $Y=925420
X85 300 2 1 291 BUF1 $T=894660 870360 1 0 $X=894660 $Y=864940
X86 243 2 1 301 BUF1 $T=894660 880440 1 0 $X=894660 $Y=875020
X87 1507 2 1 1486 BUF1 $T=899620 880440 0 0 $X=899620 $Y=880060
X88 303 2 1 1534 BUF1 $T=902720 920760 1 0 $X=902720 $Y=915340
X89 1335 2 1 310 BUF1 $T=906440 890520 0 0 $X=906440 $Y=890140
X90 328 2 1 325 BUF1 $T=975260 920760 1 180 $X=972780 $Y=920380
X91 492 42 512 2 1 523 QDFFRBN $T=301940 880440 1 0 $X=301940 $Y=875020
X92 43 42 512 2 1 539 QDFFRBN $T=305040 880440 0 0 $X=305040 $Y=880060
X93 465 42 512 2 1 528 QDFFRBN $T=305040 890520 1 0 $X=305040 $Y=885100
X94 515 42 512 2 1 545 QDFFRBN $T=318680 900600 0 0 $X=318680 $Y=900220
X95 530 42 512 2 1 547 QDFFRBN $T=319920 890520 0 0 $X=319920 $Y=890140
X96 529 42 49 2 1 562 QDFFRBN $T=329840 940920 1 0 $X=329840 $Y=935500
X97 499 42 552 2 1 560 QDFFRBN $T=331080 930840 1 0 $X=331080 $Y=925420
X98 546 42 47 2 1 557 QDFFRBN $T=331700 870360 0 0 $X=331700 $Y=869980
X99 551 42 552 2 1 548 QDFFRBN $T=344720 900600 1 180 $X=332940 $Y=900220
X100 550 42 49 2 1 566 QDFFRBN $T=334180 951000 1 0 $X=334180 $Y=945580
X101 556 42 552 2 1 579 QDFFRBN $T=338520 940920 0 0 $X=338520 $Y=940540
X102 526 42 51 2 1 598 QDFFRBN $T=345340 961080 1 0 $X=345340 $Y=955660
X103 585 42 552 2 1 611 QDFFRBN $T=352780 940920 0 0 $X=352780 $Y=940540
X104 58 42 47 2 1 572 QDFFRBN $T=365800 870360 0 180 $X=354020 $Y=864940
X105 571 42 615 2 1 629 QDFFRBN $T=363320 880440 0 0 $X=363320 $Y=880060
X106 604 42 51 2 1 57 QDFFRBN $T=375720 951000 0 180 $X=363940 $Y=945580
X107 567 42 615 2 1 653 QDFFRBN $T=366420 890520 1 0 $X=366420 $Y=885100
X108 584 42 56 2 1 61 QDFFRBN $T=368280 870360 1 0 $X=368280 $Y=864940
X109 603 42 63 2 1 651 QDFFRBN $T=375720 951000 0 0 $X=375720 $Y=950620
X110 590 42 615 2 1 660 QDFFRBN $T=376960 880440 1 0 $X=376960 $Y=875020
X111 569 42 615 2 1 655 QDFFRBN $T=378200 880440 0 0 $X=378200 $Y=880060
X112 630 42 63 2 1 675 QDFFRBN $T=388740 961080 1 0 $X=388740 $Y=955660
X113 659 42 63 2 1 679 QDFFRBN $T=390600 951000 1 0 $X=390600 $Y=945580
X114 661 42 63 2 1 687 QDFFRBN $T=392460 940920 0 0 $X=392460 $Y=940540
X115 709 42 71 2 1 682 QDFFRBN $T=416640 870360 0 180 $X=404860 $Y=864940
X116 689 42 63 2 1 716 QDFFRBN $T=406100 951000 1 0 $X=406100 $Y=945580
X117 594 42 78 2 1 742 QDFFRBN $T=416020 940920 1 0 $X=416020 $Y=935500
X118 718 42 78 2 1 738 QDFFRBN $T=417880 961080 1 0 $X=417880 $Y=955660
X119 724 42 78 2 1 747 QDFFRBN $T=421600 951000 1 0 $X=421600 $Y=945580
X120 80 42 71 2 1 721 QDFFRBN $T=434620 870360 0 180 $X=422840 $Y=864940
X121 729 42 740 2 1 746 QDFFRBN $T=424080 930840 0 0 $X=424080 $Y=930460
X122 755 42 740 2 1 781 QDFFRBN $T=438340 930840 0 0 $X=438340 $Y=930460
X123 757 42 88 2 1 790 QDFFRBN $T=442060 961080 1 0 $X=442060 $Y=955660
X124 788 42 773 2 1 86 QDFFRBN $T=454460 870360 1 180 $X=442680 $Y=869980
X125 771 91 740 2 1 775 QDFFRBN $T=458800 920760 1 180 $X=447020 $Y=920380
X126 802 42 773 2 1 728 QDFFRBN $T=460660 880440 1 180 $X=448880 $Y=880060
X127 808 42 773 2 1 753 QDFFRBN $T=463140 890520 1 180 $X=451360 $Y=890140
X128 810 42 773 2 1 774 QDFFRBN $T=464380 900600 0 180 $X=452600 $Y=895180
X129 827 91 773 2 1 739 QDFFRBN $T=473680 880440 1 180 $X=461900 $Y=880060
X130 833 91 825 2 1 824 QDFFRBN $T=479880 890520 1 180 $X=468100 $Y=890140
X131 835 91 825 2 1 791 QDFFRBN $T=481740 910680 0 180 $X=469960 $Y=905260
X132 836 91 828 2 1 801 QDFFRBN $T=481740 961080 0 180 $X=469960 $Y=955660
X133 794 91 828 2 1 839 QDFFRBN $T=470580 940920 0 0 $X=470580 $Y=940540
X134 837 91 825 2 1 792 QDFFRBN $T=482980 910680 1 180 $X=471200 $Y=910300
X135 104 91 773 2 1 803 QDFFRBN $T=484840 880440 0 180 $X=473060 $Y=875020
X136 841 91 825 2 1 813 QDFFRBN $T=484840 900600 0 180 $X=473060 $Y=895180
X137 843 91 828 2 1 830 QDFFRBN $T=486700 951000 0 180 $X=474920 $Y=945580
X138 868 91 825 2 1 823 QDFFRBN $T=487320 880440 1 180 $X=475540 $Y=880060
X139 797 91 828 2 1 854 QDFFRBN $T=475540 940920 1 0 $X=475540 $Y=935500
X140 851 91 840 2 1 832 QDFFRBN $T=491660 930840 0 180 $X=479880 $Y=925420
X141 863 91 840 2 1 838 QDFFRBN $T=495380 910680 0 180 $X=483600 $Y=905260
X142 869 91 840 2 1 844 QDFFRBN $T=497240 910680 1 180 $X=485460 $Y=910300
X143 901 91 113 2 1 856 QDFFRBN $T=514600 951000 1 180 $X=502820 $Y=950620
X144 908 91 887 2 1 881 QDFFRBN $T=518320 940920 1 180 $X=506540 $Y=940540
X145 925 91 887 2 1 891 QDFFRBN $T=522660 930840 0 180 $X=510880 $Y=925420
X146 918 91 887 2 1 899 QDFFRBN $T=523280 930840 1 180 $X=511500 $Y=930460
X147 930 91 120 2 1 907 QDFFRBN $T=528240 951000 1 180 $X=516460 $Y=950620
X148 933 91 120 2 1 909 QDFFRBN $T=528860 951000 0 180 $X=517080 $Y=945580
X149 135 91 980 2 1 983 QDFFRBN $T=546840 870360 1 0 $X=546840 $Y=864940
X150 136 91 980 2 1 987 QDFFRBN $T=546840 870360 0 0 $X=546840 $Y=869980
X151 999 91 980 2 1 911 QDFFRBN $T=559860 890520 0 180 $X=548080 $Y=885100
X152 137 91 980 2 1 982 QDFFRBN $T=549940 880440 1 0 $X=549940 $Y=875020
X153 1018 91 1000 2 1 984 QDFFRBN $T=571020 890520 1 180 $X=559240 $Y=890140
X154 1012 91 1000 2 1 995 QDFFRBN $T=571020 910680 0 180 $X=559240 $Y=905260
X155 150 91 980 2 1 142 QDFFRBN $T=574740 870360 1 180 $X=562960 $Y=869980
X156 1022 91 980 2 1 976 QDFFRBN $T=576600 880440 1 180 $X=564820 $Y=880060
X157 1010 91 1000 2 1 1007 QDFFRBN $T=578460 900600 1 180 $X=566680 $Y=900220
X158 998 91 1000 2 1 152 QDFFRBN $T=570400 890520 1 0 $X=570400 $Y=885100
X159 1023 91 1000 2 1 153 QDFFRBN $T=574740 890520 0 0 $X=574740 $Y=890140
X160 1027 91 1038 2 1 1039 QDFFRBN $T=577220 910680 1 0 $X=577220 $Y=905260
X161 1035 91 1038 2 1 1058 QDFFRBN $T=592100 910680 0 0 $X=592100 $Y=910300
X162 1064 91 1038 2 1 1047 QDFFRBN $T=608840 920760 0 180 $X=597060 $Y=915340
X163 1065 157 158 2 1 1049 QDFFRBN $T=608840 951000 1 180 $X=597060 $Y=950620
X164 161 157 159 2 1 1057 QDFFRBN $T=609460 870360 1 180 $X=597680 $Y=869980
X165 156 157 160 2 1 1067 QDFFRBN $T=597680 880440 1 0 $X=597680 $Y=875020
X166 1069 157 158 2 1 1055 QDFFRBN $T=613180 961080 0 180 $X=601400 $Y=955660
X167 163 157 1066 2 1 1048 QDFFRBN $T=616280 890520 1 180 $X=604500 $Y=890140
X168 1070 157 1063 2 1 1059 QDFFRBN $T=616280 940920 1 180 $X=604500 $Y=940540
X169 1071 157 158 2 1 1062 QDFFRBN $T=617520 940920 0 180 $X=605740 $Y=935500
X170 1081 157 1063 2 1 1040 QDFFRBN $T=618140 930840 0 180 $X=606360 $Y=925420
X171 1073 157 1066 2 1 973 QDFFRBN $T=618760 900600 0 180 $X=606980 $Y=895180
X172 1075 157 1063 2 1 1002 QDFFRBN $T=621240 920760 1 180 $X=609460 $Y=920380
X173 1083 157 158 2 1 994 QDFFRBN $T=622480 951000 1 180 $X=610700 $Y=950620
X174 1076 157 1066 2 1 1097 QDFFRBN $T=620000 900600 0 0 $X=620000 $Y=900220
X175 1104 157 160 2 1 1074 QDFFRBN $T=638600 870360 0 180 $X=626820 $Y=864940
X176 1108 157 160 2 1 1089 QDFFRBN $T=641700 880440 0 180 $X=629920 $Y=875020
X177 1116 157 1100 2 1 1099 QDFFRBN $T=646040 910680 0 180 $X=634260 $Y=905260
X178 1125 157 1112 2 1 1103 QDFFRBN $T=650380 940920 0 180 $X=638600 $Y=935500
X179 1126 157 1112 2 1 1102 QDFFRBN $T=651620 930840 0 180 $X=639840 $Y=925420
X180 1128 157 1113 2 1 1096 QDFFRBN $T=652240 890520 1 180 $X=640460 $Y=890140
X181 1139 157 170 2 1 165 QDFFRBN $T=658440 961080 0 180 $X=646660 $Y=955660
X182 1135 157 170 2 1 1092 QDFFRBN $T=660920 940920 1 180 $X=649140 $Y=940540
X183 1133 157 170 2 1 1086 QDFFRBN $T=660920 951000 0 180 $X=649140 $Y=945580
X184 1136 157 1113 2 1 1120 QDFFRBN $T=661540 890520 0 180 $X=649760 $Y=885100
X185 1134 157 1112 2 1 1122 QDFFRBN $T=664020 910680 0 180 $X=652240 $Y=905260
X186 1148 157 1113 2 1 1117 QDFFRBN $T=667120 890520 1 180 $X=655340 $Y=890140
X187 1178 157 1113 2 1 1123 QDFFRBN $T=668360 900600 1 180 $X=656580 $Y=900220
X188 1142 157 1129 2 1 1119 QDFFRBN $T=668360 930840 1 180 $X=656580 $Y=930460
X189 1146 157 1129 2 1 1114 QDFFRBN $T=670840 920760 1 180 $X=659060 $Y=920380
X190 1150 157 1113 2 1 1118 QDFFRBN $T=672080 880440 1 180 $X=660300 $Y=880060
X191 1149 157 1129 2 1 1107 QDFFRBN $T=673320 920760 0 180 $X=661540 $Y=915340
X192 1361 259 262 2 1 1400 QDFFRBN $T=792980 890520 0 0 $X=792980 $Y=890140
X193 258 259 262 2 1 1399 QDFFRBN $T=793600 870360 0 0 $X=793600 $Y=869980
X194 261 259 262 2 1 1395 QDFFRBN $T=794840 880440 1 0 $X=794840 $Y=875020
X195 1423 259 262 2 1 1409 QDFFRBN $T=821500 910680 0 180 $X=809720 $Y=905260
X196 1414 259 1439 2 1 1444 QDFFRBN $T=822740 910680 0 0 $X=822740 $Y=910300
X197 1430 259 262 2 1 1427 QDFFRBN $T=835760 910680 0 180 $X=823980 $Y=905260
X198 1426 259 1439 2 1 1451 QDFFRBN $T=826460 930840 1 0 $X=826460 $Y=925420
X199 1443 259 1439 2 1 1425 QDFFRBN $T=844440 890520 1 180 $X=832660 $Y=890140
X200 1456 259 82 2 1 1446 QDFFRBN $T=846920 961080 0 180 $X=835140 $Y=955660
X201 1442 259 1439 2 1 1458 QDFFRBN $T=838240 910680 1 0 $X=838240 $Y=905260
X202 1466 259 1439 2 1 1404 QDFFRBN $T=858080 890520 1 180 $X=846300 $Y=890140
X203 1464 259 282 2 1 1459 QDFFRBN $T=859320 930840 1 180 $X=847540 $Y=930460
X204 1471 259 282 2 1 1460 QDFFRBN $T=861180 930840 0 180 $X=849400 $Y=925420
X205 1478 259 1472 2 1 1468 QDFFRBN $T=869240 920760 1 180 $X=857460 $Y=920380
X206 1469 259 289 2 1 290 QDFFRBN $T=859320 870360 0 0 $X=859320 $Y=869980
X207 1477 259 1472 2 1 1467 QDFFRBN $T=872340 890520 1 180 $X=860560 $Y=890140
X208 1488 259 1472 2 1 1470 QDFFRBN $T=877920 880440 0 180 $X=866140 $Y=875020
X209 294 259 282 2 1 1411 QDFFRBN $T=884740 961080 0 180 $X=872960 $Y=955660
X210 444 2 412 1 INV1S $T=278380 910680 1 180 $X=277140 $Y=910300
X211 31 2 444 1 INV1S $T=280240 910680 1 0 $X=280240 $Y=905260
X212 468 2 467 1 INV1S $T=296360 930840 0 0 $X=296360 $Y=930460
X213 444 2 504 1 INV1S $T=305660 910680 1 0 $X=305660 $Y=905260
X214 498 2 502 1 INV1S $T=305660 940920 1 0 $X=305660 $Y=935500
X215 494 2 510 1 INV1S $T=309380 930840 0 0 $X=309380 $Y=930460
X216 514 2 513 1 INV1S $T=314960 930840 1 0 $X=314960 $Y=925420
X217 482 2 469 1 INV1S $T=314960 930840 0 0 $X=314960 $Y=930460
X218 568 2 575 1 INV1S $T=347200 890520 0 0 $X=347200 $Y=890140
X219 593 2 587 1 INV1S $T=354640 910680 1 180 $X=353400 $Y=910300
X220 45 2 589 1 INV1S $T=355880 890520 1 0 $X=355880 $Y=885100
X221 58 2 591 1 INV1S $T=365800 870360 1 180 $X=364560 $Y=869980
X222 46 2 602 1 INV1S $T=365800 880440 0 180 $X=364560 $Y=875020
X223 60 2 613 1 INV1S $T=372000 920760 0 180 $X=370760 $Y=915340
X224 614 2 638 1 INV1S $T=375720 940920 1 0 $X=375720 $Y=935500
X225 607 2 648 1 INV1S $T=385640 900600 1 180 $X=384400 $Y=900220
X226 641 2 639 1 INV1S $T=387500 940920 0 0 $X=387500 $Y=940540
X227 660 2 673 1 INV1S $T=391840 870360 0 0 $X=391840 $Y=869980
X228 629 2 662 1 INV1S $T=391840 880440 0 0 $X=391840 $Y=880060
X229 655 2 668 1 INV1S $T=395560 880440 0 0 $X=395560 $Y=880060
X230 653 2 693 1 INV1S $T=401140 890520 1 0 $X=401140 $Y=885100